#### CIF created by Crystallographica 2 ####

data_CalciumSulfateVIGamma

_audit_creation_method                    'Crystallographica 2' 
_cell_angle_alpha                         90 
_cell_angle_beta                          90 
_cell_angle_gamma                         120 
_cell_formula_units_Z                     3 
_cell_length_a                            6.9694 
_cell_length_b                            6.9694 
_cell_length_c                            6.3033 
_cell_volume                              265.149 
_cgraph_comments                         'A crystallographic study of the low-temperature dehydration 
     products of gypsum. Ca S O4 . 2(H2 O): hemihydrate Ca S O4 
     . 0.50(H2 O) and gamma-(Ca S O4)
'
_cgraph_title                            'Calcium Sulfate(VI) - Gamma'
_chemical_formula_sum                    'Ca (S O4)'
_symmetry_space_group_name_H-M           'P 62 2 2'
_symmetry_space_group_name_Hall          ' P 62 2c (0 0 1)'

loop_
        _symmetry_equiv_pos_as_xyz
        'x, y, z'
        'x-y, x, z+1/3'
        '-y, x-y, z-1/3'
        '-x, -y, z'
        '-x+y, -x, z+1/3'
        'y, -x+y, z-1/3'
        'x-y, -y, -z'
        '-x, -x+y, -z+1/3'
        'y, x, -z-1/3'
        '-y, -x, -z-1/3'
        '-x+y, y, -z'
        'x, x-y, -z+1/3'

loop_
        _atom_site_label
        _atom_site_type_symbol
        _atom_site_fract_x
        _atom_site_fract_y
        _atom_site_fract_z
        _atom_site_U_iso_or_equiv
        _atom_site_thermal_displace_type
        _atom_site_occupancy
        Ca1 Ca2+ 0.5 0 0 0.0148182 Uiso 1
        S1 S 0.5 0 0.5 0.0125385 Uiso 1
        O1 O2- 0.4458 0.1347 0.3578 0.0182378 Uiso 1

_eof

#### End of Crystallographic Information File ####
