#### CIF created by Crystallographica 2 ####

data_CalciumSulfate

_audit_creation_method                    'Crystallographica 2' 
_cell_angle_alpha                         90 
_cell_angle_beta                          90 
_cell_angle_gamma                         90 
_cell_formula_units_Z                     4 
_cell_length_a                            6.3365 
_cell_length_b                            7.5347 
_cell_length_c                            4.9532 
_cell_volume                              236.484 
_cgraph_comments                         'Evidence for monazite-. barite-. and Ag Mn O4 (distorted 
     barite)-type structures of Ca S O4 at high pressure and 
     temperature
'
_cgraph_title                            'Calcium Sulfate'
_chemical_formula_sum                    'Ca S O4'
_symmetry_space_group_name_H-M           'P b n m'
_symmetry_space_group_name_Hall          '-P 2c 2ab'

loop_
        _symmetry_equiv_pos_as_xyz
        'x, y, z'
        '-x, -y, -z'
        '-x, -y, z+1/2'
        'x, y, -z+1/2'
        'x+1/2, -y+1/2, -z'
        '-x+1/2, y+1/2, z'
        '-x+1/2, y+1/2, -z+1/2'
        'x+1/2, -y+1/2, z+1/2'

loop_
        _atom_site_label
        _atom_site_type_symbol
        _atom_site_fract_x
        _atom_site_fract_y
        _atom_site_fract_z
        _atom_site_U_iso_or_equiv
        _atom_site_thermal_displace_type
        _atom_site_occupancy
        Ca1 Ca2+ 0.1696 0.1812 0.25 0.0298 Uiso 1
        S1 S 0.8166 0.5606 0.25 0.0452 Uiso 1
        O1 O2- 0.5675 0.8898 0.25 0.0334 Uiso 1
        O2 O2- 0.5341 0.2141 0.25 0.0334 Uiso 1
        O3 O2- 0.3193 0.4287 0.9823 0.0334 Uiso 1

_eof

#### End of Crystallographic Information File ####
