#### CIF created by Crystallographica 2 ####

data_CalciumSulfate

_audit_creation_method                    'Crystallographica 2' 
_cell_angle_alpha                         90 
_cell_angle_beta                          90 
_cell_angle_gamma                         90 
_cell_formula_units_Z                     4 
_cell_length_a                            6.991 
_cell_length_b                            6.996 
_cell_length_c                            6.238 
_cell_volume                              305.095 
_cgraph_comments                         'The crystal structure of anhydrite (Ca S O4)
'
_cgraph_title                            'Calcium Sulfate'
_chemical_formula_sum                    'Ca S O4'
_symmetry_space_group_name_H-M           'A m m a'
_symmetry_space_group_name_Hall          '-A 2a 2a'

loop_
        _symmetry_equiv_pos_as_xyz
        'x, y, z'
        'x, y+1/2, z+1/2'
        '-x, -y, -z'
        '-x, -y+1/2, -z+1/2'
        '-x+1/2, -y, z'
        '-x+1/2, -y+1/2, z+1/2'
        'x+1/2, y, -z'
        'x+1/2, y+1/2, -z+1/2'
        'x+1/2, -y, -z'
        'x+1/2, -y+1/2, -z+1/2'
        '-x+1/2, y, z'
        '-x+1/2, y+1/2, z+1/2'
        '-x, y, -z'
        '-x, y+1/2, -z+1/2'
        'x, -y, z'
        'x, -y+1/2, z+1/2'

loop_
        _atom_site_label
        _atom_site_type_symbol
        _atom_site_fract_x
        _atom_site_fract_y
        _atom_site_fract_z
        _atom_site_U_iso_or_equiv
        _atom_site_thermal_displace_type
        _atom_site_occupancy
        Ca1 Ca2+ 0.75 0 0.346 0.0088656 Uiso 1
        S1 S 0.25 0 0.155 0.0088656 Uiso 1
        O1 O2- 0.25 0.171 0.015 0.0113986 Uiso 1
        O2 O2- 0.08 0 0.298 0.0139317 Uiso 1

_eof

#### End of Crystallographic Information File ####
