#### CIF created by Crystallographica 2 ####

data_CalciumSulfateIVHemihydrate

_audit_creation_method                    'Crystallographica 2' 
_cell_angle_alpha                         90 
_cell_angle_beta                          90 
_cell_angle_gamma                         90 
_cell_formula_units_Z                     8 
_cell_length_a                            6.4844 
_cell_length_b                            9.8123 
_cell_length_c                            10.6629 
_cell_volume                              678.447 
_cgraph_comments                         'Strukturelle Untersuchungen an Ca (S O3) (H2 O).5
'
_cgraph_title                            'Calcium Sulfate(IV) Hemihydrate'
_chemical_formula_sum                    'Ca (S O3) (H2 O).5'
_symmetry_space_group_name_H-M           'P b n a'
_symmetry_space_group_name_Hall          '-P 2ac 2b'

loop_
        _symmetry_equiv_pos_as_xyz
        'x, y, z'
        '-x, -y, -z'
        '-x+1/2, -y, z+1/2'
        'x+1/2, y, -z+1/2'
        'x, -y+1/2, -z'
        '-x, y+1/2, z'
        '-x+1/2, y+1/2, -z+1/2'
        'x+1/2, -y+1/2, z+1/2'

loop_
        _atom_site_label
        _atom_site_type_symbol
        _atom_site_fract_x
        _atom_site_fract_y
        _atom_site_fract_z
        _atom_site_U_iso_or_equiv
        _atom_site_thermal_displace_type
        _atom_site_occupancy
        Ca1 Ca2+ 0.5134 0.1318 0.1459 0 Uani 1
        S1 S 0.1691 0.3847 0.1287 0 Uani 1
        O1 O2- 0.3665 0.4008 0.0517 0 Uani 1
        O2 O2- 0.2101 0.2607 0.2099 0 Uani 1
        O3 O2- 0.1811 0.5067 0.2147 0 Uani 1
        O4 O2- 0.2562 0.25 0.5 0 Uani 1
        H1 H 0.3425 0.2934 0.5626 0 Uiso 1

loop_
        _atom_site_aniso_label
        _atom_site_aniso_U_11
        _atom_site_aniso_U_22
        _atom_site_aniso_U_33
        _atom_site_aniso_U_12
        _atom_site_aniso_U_13
        _atom_site_aniso_U_23
        Ca1 0.009 0.0118 0.0083 -0.0004 -0.0008 0.0002
        S1 0.0099 0.0089 0.0135 -0.001 0.0009 0
        O1 0.027 0.026 0.019 -0.007 0.009 -0.007
        O2 0.02 0.014 0.027 0.002 0.004 0.006
        O3 0.023 0.015 0.031 -0.002 0.007 -0.011
        O4 0.014 0.029 0.027 0 0 -0.009

_eof

#### End of Crystallographic Information File ####
