#### CIF created by Crystallographica 2 ####

data_CalciumSulfatehydrate

_audit_creation_method                    'Crystallographica 2' 
_cell_angle_alpha                         90 
_cell_angle_beta                          90 
_cell_angle_gamma                         120 
_cell_formula_units_Z                     3 
_cell_length_a                            6.968 
_cell_length_b                            6.968 
_cell_length_c                            6.41 
_cell_volume                              269.529 
_cgraph_comments                         'Calcium Sulfat Subhydrat. Ca S O4 (H2 O).8
'
_cgraph_title                            'Calcium Sulfate .8-hydrate'
_chemical_formula_sum                    'Ca S O4 (H2 O).8'
_symmetry_space_group_name_H-M           'P 31 2 1'
_symmetry_space_group_name_Hall          ' P 31 2"'

loop_
        _symmetry_equiv_pos_as_xyz
        'x, y, z'
        '-y, x-y, z+1/3'
        '-x+y, -x, z-1/3'
        'x-y, -y, -z-1/3'
        '-x, -x+y, -z+1/3'
        'y, x, -z'

loop_
        _atom_site_label
        _atom_site_type_symbol
        _atom_site_fract_x
        _atom_site_fract_y
        _atom_site_fract_z
        _atom_site_U_iso_or_equiv
        _atom_site_thermal_displace_type
        _atom_site_occupancy
        Ca1 Ca2+ 0.5424 0 0.8333 0 Uani 1
        S1 S 0.5481 0 0.3333 0 Uani 1
        O1 O2- 0.5952 0.8564 0.4656 0 Uani 1
        O2 O2- 0.3693 0.8731 0.1897 0 Uani 1
        O3 O2- 0.9143 0 0.8333 0 Uani 0.8

loop_
        _atom_site_aniso_label
        _atom_site_aniso_U_11
        _atom_site_aniso_U_22
        _atom_site_aniso_U_33
        _atom_site_aniso_U_12
        _atom_site_aniso_U_13
        _atom_site_aniso_U_23
        Ca1 0.034 0.017 0.047 0.0086 0.0011 0.002
        S1 0.016 0.012 0.022 0.006 0.0009 0.002
        O1 0.027 0.042 0.04 0.022 0.006 0.029
        O2 0.051 0.018 0.017 0.009 -0.017 -0.01
        O3 0.045 0.027 0.172 0.013 -0.014 -0.028

_eof

#### End of Crystallographic Information File ####
