#### CIF created by Crystallographica 2 ####

data_CalciumSulfateVIhydrate

_audit_creation_method                    'Crystallographica 2' 
_cell_angle_alpha                         90 
_cell_angle_beta                          90 
_cell_angle_gamma                         90 
_cell_formula_units_Z                     12 
_cell_length_a                            11.9845 
_cell_length_b                            6.9292 
_cell_length_c                            12.7505 
_cell_volume                              1058.84 
_cgraph_comments                         'Investigation of the crystal structure of gamma-Ca S O4. Ca 
     S O4 . 0.5(H2 O). and Ca S O4 . 0.6(H2 O) by powder 
     diffraction methods
'
_cgraph_title                            'Calcium Sulfate(VI) 0.58-hydrate'
_chemical_formula_sum                    'Ca (S O4) (H2 O)0.583'
_symmetry_space_group_name_H-M           'C 2'
_symmetry_space_group_name_Hall          ' I 2y'

loop_
        _symmetry_equiv_pos_as_xyz
        'x, y, z'
        'x+1/2, y+1/2, z+1/2'
        '-x, y, -z'
        '-x+1/2, y+1/2, -z+1/2'

loop_
        _atom_site_label
        _atom_site_type_symbol
        _atom_site_fract_x
        _atom_site_fract_y
        _atom_site_fract_z
        _atom_site_U_iso_or_equiv
        _atom_site_thermal_displace_type
        _atom_site_occupancy
        S1 S 0.007 0.009 0.247 0.0088656 Uiso 1
        S2 S 0.724 0.168 0.408 0.0088656 Uiso 1
        S3 S 0.273 0.177 0.085 0.0088656 Uiso 1
        Ca1 Ca2+ 0 0.026 0.5 0.0101321 Uiso 1
        Ca2 Ca2+ 0.722 0.178 0.166 0.00253303 Uiso 1
        Ca3 Ca2+ 0.27 0.187 0.322 0.00506606 Uiso 1
        Ca4 Ca2+ 0 0 0 0.0088656 Uiso 1
        O1 O2- 0.074 0.121 0.304 0.0126651 Uiso 1
        O2 O2- 0.058 0.899 0.182 0.0126651 Uiso 1
        O3 O2- 0.918 0.113 0.187 0.0126651 Uiso 1
        O4 O2- 0.956 0.875 0.324 0.0126651 Uiso 1
        O5 O2- 0.743 0.344 0.343 0.0113986 Uiso 1
        O6 O2- 0.629 0.236 0.479 0.0126651 Uiso 1
        O7 O2- 0.813 0.174 0.489 0.0126651 Uiso 1
        O8 O2- 0.697 0.978 0.354 0.0126651 Uiso 1
        O9 O2- 0.183 0.312 0.124 0.0139317 Uiso 1
        O10 O2- 0.368 0.248 0.018 0.00759909 Uiso 1
        O11 O2- 0.199 0.147 0.993 0.0088656 Uiso 1
        O12 O2- 0.296 0.053 0.181 0.0113986 Uiso 1
        O13 O2- 0.426 0.999 0.345 0.0215308 Uiso 0.875
        O14 O2- 0.542 0.977 0.129 0.0151982 Uiso 0.875

_eof

#### End of Crystallographic Information File ####
