#### CIF created by Crystallographica 2 ####

data_CalciumSulfateVIhydrate

_audit_creation_method                    'Crystallographica 2' 
_cell_angle_alpha                         90 
_cell_angle_beta                          90 
_cell_angle_gamma                         90 
_cell_formula_units_Z                     12 
_cell_length_a                            11.9845 
_cell_length_b                            6.9292 
_cell_length_c                            12.7505 
_cell_volume                              1058.84 
_chemical_formula_sum                    'Ca (S O4) (H2 O)0.583'
_symmetry_space_group_name_H-M           'C 2'
_symmetry_space_group_name_Hall          ' I 2y'

loop_
        _symmetry_equiv_pos_as_xyz
        'x, y, z'
        'x+1/2, y+1/2, z+1/2'
        '-x, y, -z'
        '-x+1/2, y+1/2, -z+1/2'

loop_
        _atom_site_label
        _atom_site_type_symbol
        _atom_site_fract_x
        _atom_site_fract_y
        _atom_site_fract_z
        _atom_site_U_iso_or_equiv
        _atom_site_thermal_displace_type
        _atom_site_occupancy
        S1 S 0.999 0.007 0.244 0.0088656 Uiso 1
        S2 S 0.718 0.163 0.405 0.0088656 Uiso 1
        S3 S 0.276 0.162 0.091 0.0088656 Uiso 1
        Ca1 Ca2+ 0 0 0.5 0.00759909 Uiso 1
        Ca2 Ca2+ 0.723 0.139 0.141 0.0088656 Uiso 1
        Ca3 Ca2+ 0.259 0.189 0.341 0.0088656 Uiso 1
        Ca4 Ca2+ 0 0 0 0.00379954 Uiso 1
        O1 O2- 0.087 0.109 0.301 0.0202642 Uiso 1
        O2 O2- 0.089 0.912 0.177 0.0215308 Uiso 1
        O3 O2- 0.951 0.11 0.156 0.0215308 Uiso 1
        O4 O2- 0.934 0.861 0.314 0.0215308 Uiso 1
        O5 O2- 0.732 0.308 0.319 0.0215308 Uiso 1
        O6 O2- 0.621 0.214 0.474 0.0202642 Uiso 1
        O7 O2- 0.804 0.147 0.49 0.0202642 Uiso 1
        O8 O2- 0.697 0.965 0.36 0.0215308 Uiso 1
        O9 O2- 0.232 0.32 0.161 0.0202642 Uiso 1
        O10 O2- 0.376 0.199 0.025 0.0202642 Uiso 1
        O11 O2- 0.186 0.12 0.012 0.0202642 Uiso 1
        O12 O2- 0.295 0.992 0.163 0.0215308 Uiso 1
        O13 O2- 0.455 0.024 0.329 0.0240638 Uiso 0.875
        O14 O2- 0.556 0.996 0.167 0.0291298 Uiso 0.875
        H1 H 0.515 0.031 0.382 0.0455945 Uiso 0.875
        H2 H 0.469 0.905 0.288 0.0557267 Uiso 0.875
        H3 H 0.5 0.087 0.191 0.0177312 Uiso 0.875
        H4 H 0.548 0.884 0.212 0.0848565 Uiso 0.875

